 16
 0.000000
  C -1.060017 -1.517146 0.052887
  C -1.829554 -0.594086 -0.539688
  C -2.012604 0.793709 -0.089780
  C -1.097406 1.540951 0.541104
  C 3.018414 -0.332740 0.534205
  C 2.482680 0.169904 -0.576610
  H -2.400633 -0.882356 -1.423216
  H -0.513652 -1.303832 0.968289
  H -0.966890 -2.521220 -0.351177
  H 3.891712 0.112541 1.005362
  H 2.608491 -1.215917 1.019022
  H 1.608060 -0.276406 -1.043738
  H 2.895264 1.050961 -1.063014
  H -1.320890 2.556285 0.856673
  H -0.094545 1.173901 0.744815
  H -2.981424 1.238281 -0.320708
 16
 -40.719351
  C 0.018565 -1.505102 0.071755
  C -1.254726 -0.702912 -0.048283
  C -1.285511 0.633242 -0.085278
  C -0.048111 1.496966 -0.044220
  C 1.216014 -0.631689 0.479480
  C 1.229452 0.684821 -0.310339
  H -2.187944 -1.262829 -0.104375
  H -0.121338 -2.316354 0.799873
  H 0.226636 -2.006431 -0.887349
  H 1.148348 -0.405323 1.552809
  H 2.153272 -1.182597 0.331990
  H 1.295645 0.458374 -1.383898
  H 2.115916 1.280139 -0.058569
  H -0.137620 2.309803 -0.778494
  H 0.019570 1.995007 0.936447
  H -2.244815 1.145933 -0.151545
