 6
 0.000000
  C 0.665602 0.000000 0.000000
  C -0.665560 0.000000 0.000000
  H -1.239679 0.922286 -0.050586
  H 1.239658 -0.922318 0.050600
  H 1.239658 0.922318 -0.050600
  H -1.239679 -0.922286 0.050586
 6
 0.001010
  C 0.665434 0.008076 0.002541
  C -0.665432 -0.007099 -0.002602
  H -1.235425 -0.063397 -0.927084
  H 1.243701 -0.034926 -0.917499
  H 1.235419 0.064743 0.927010
  H -1.243677 0.036485 0.917424
